src/test/resources/netPositionsData/20190617_0030_FO1_ES0.UCT
##C 2007.05.01

##N
##ZES
ASLACK11 SLACK        0 2 400.00    0.00    0.00    0.00    0.00    9.30    0.00
ALOAD111 LOAD         1 2 400.00    0.00    0.00    0.00    0.00    0.00    0.00
ATA_FA11 SHADOW       1 2 400.00    0.00    0.00    0.00    0.00    9.30    0.00
##ZXX
XTA_FA11 OUT          1 0 400.00    0.00    0.00    0.00    0.00    0.00    0.00                                        
##L
ATA_FA11 XTA_FA11 1 0   0.00   0.00    0.00   5000
##T
##R
